LAMMPS (3 Mar 2020)
units           lj
atom_style      angle

read_restart    0Bonds.restart
  restoring atom style angle from restart
  orthogonal box = (23.0206 23.0206 23.0206) to (100.466 100.466 100.466)
  restoring pair style lj96/cut from restart
  restoring bond style harmonic from restart
  restoring angle style table from restart
  1000000 atoms
  999000 bonds
  998000 angles
  read_restart CPU = 1.02249 secs

pair_style      lj96/cut 1.0188
pair_modify shift yes
pair_coeff 1 1 0.37775 0.89

bond_style      harmonic
bond_coeff 1 1000.0 0.5

angle_style   table linear 1801
angle_coeff 1 cgpva.table CG_PVA

special_bonds lj 0.0 0.0 1.0

thermo          5000
thermo_style    custom step temp epair emol etotal press vol lx ly lz density enthalpy ebond eangle
timestep        0.01

fix             1 all npt temp 0.90 0.75 1.0 iso 8.0 8.0 10.0

dump            1  all atom 10000 poly.dump
dump_modify     1  image yes scale no

restart         1000000 poly.restart
run             75000000
  update every 1 steps, delay 10 steps, check yes
Step Temp E_pair E_mol TotEng Press Volume Lx Ly Lz Density Enthalpy E_bond E_angle
0   0.89930937    0.3753767    2.6378274    4.3621668    7.9922457    464501.24      77.4454      77.4454      77.4454    2.1528468    8.0745749   0.48729089    2.1505365
Averages over the last 7501 of 15001 rows, steps 37500000 to 75000000:
Temp E_pair E_mol TotEng Press Volume Lx Ly Lz Density Enthalpy E_bond E_angle
0.789003 0.346109 1.95885 3.48846 8.00011 445440 76.3644 76.3644 76.3644 2.24677 7.05203 0.428297 1.53055
Loop time of 460286 on 96 procs for 75000000 steps with 1000000 atoms

write_data	out.75
